Reading the file, via filereading, bla bla bla
New Line.
New Line. New Line.
New Line.
New Line.
New Line.
New Line.
This is awesome
New Line.
New Line.
New Line.
New Line.